
**** 01/11/23 09:50:56 ****** PSpice Lite (October 2012) ****** ID# 10813 ****

 ** Profile: "SCHEMATIC1-ovp"  [ D:\1faculta\onedrive - universitatea politehnica bucuresti\cursuri inregistrate\an 3 sem 1\proiect 1


 ****     CIRCUIT DESCRIPTION


******************************************************************************




** Creating circuit file "ovp.cir" 
** WARNING: THIS AUTOMATICALLY GENERATED FILE MAY BE OVERWRITTEN BY SUBSEQUENT SIMULATIONS

*Libraries: 
* Profile Libraries :
* Local Libraries :
* From [PSPICE NETLIST] section of C:\Users\Tudor\AppData\Roaming\SPB_16.6\cdssetup\OrCAD_PSpice/16.6.0/PSpice.ini file:
.lib "nomd.lib" 

*Analysis directives: 
.DC LIN V_V1 15 25 0.1 
.OPTIONS ADVCONV
.PROBE64 V(alias(*)) I(alias(*)) W(alias(*)) D(alias(*)) NOISE(alias(*)) 
.INC "..\SCHEMATIC1.net" 



**** INCLUDING SCHEMATIC1.net ****
* source OVP
R_R8         N100091 N1003030  10 TC=0,0 
D_D1         N100637 N100033 BZX84-C5V1 
C_C1         0 VIN  4.7u  TC=0,0 
Q_Q2         N100673 N100673 N101113 QBC807-25 
R_R14         0 N100565  15k TC=0,0 
R_R3         N101113 VIN  1k TC=0,0 
R_R7         0 N99991  100k TC=0,0 
C_C3         0 VOUT  4.7u  TC=0,0 
C_C2         0 N100033  4.7u  TC=0,0 
R_R10         N1003250 VOUT  1 TC=0,0 
C_C4         0 VOUT  4.7u  TC=0,0 
D_D3         N101193 VOUT BZX84-C10 
Q_Q8         VOUT N100787 0 QMJD31C 
D_D5         N100787 N101199 BZX84-C2V7 
D_D2         0 N100637 BZX84-C2V7 
R_R12         N101173 N101145  680 TC=0,0 
X_R13         N100565 N100571 N101173 POT PARAMS: SET=1 VALUE=5k
R_R5         0 N100787  100 TC=0,0 
R_R2         0 N101023  500 TC=0,0 
Q_Q3         N100019 N100673 N100013 QBC807-25 
V_V1         VIN 0 23.5V
Q_Q4         N100673 N100033 N100151 QBC817-25 
Q_Q7         N100019 N99991 VOUT QBC817-25 
R_R6         N99991 N100091  4.7k TC=0,0 
R_R1         N100033 N100495  150 TC=0,0 
Q_Q5         N100019 N100571 N100151 QBC817-25 
R_R9         N1003030 N1003250  10 TC=0,0 
J_Q1         VIN N100033 N100495 JMMBFJ309LT1 
Q_Q9         VIN N100019 N100091 QMJD31C 
R_RL         0 VOUT  470 TC=0,0 
R_R11         N101145 VOUT  15k TC=0,0 
R_R4         N100013 VIN  1k TC=0,0 
Q_Q6         N100151 N100637 N101023 QBC817-25 
D_D4         N101199 N101193 BZX84-C5V1 

**** RESUMING ovp.cir ****
.END

ERROR(ORPSIM-15113): Model BZX84-C5V1 used by D_D1 is undefined

ERROR(ORPSIM-15113): Model BZX84-C10 used by D_D3 is undefined

ERROR(ORPSIM-15113): Model BZX84-C2V7 used by D_D5 is undefined

ERROR(ORPSIM-15113): Model BZX84-C2V7 used by D_D2 is undefined

ERROR(ORPSIM-15113): Model BZX84-C5V1 used by D_D4 is undefined

ERROR(ORPSIM-15113): Model JMMBFJ309LT1 used by J_Q1 is undefined

ERROR(ORPSIM-15113): Model QBC807-25 used by Q_Q2 is undefined

ERROR(ORPSIM-15113): Model QMJD31C used by Q_Q8 is undefined

ERROR(ORPSIM-15113): Model QBC807-25 used by Q_Q3 is undefined

ERROR(ORPSIM-15113): Model QBC817-25 used by Q_Q4 is undefined

ERROR(ORPSIM-15113): Model QBC817-25 used by Q_Q7 is undefined

ERROR(ORPSIM-15113): Model QBC817-25 used by Q_Q5 is undefined

ERROR(ORPSIM-15113): Model QMJD31C used by Q_Q9 is undefined

ERROR(ORPSIM-15113): Model QBC817-25 used by Q_Q6 is undefined
