
**** 01/11/23 21:01:14 ****** PSpice Lite (October 2012) ****** ID# 10813 ****

 ** Profile: "SCHEMATIC1-OCP"  [ d:\1faculta\onedrive - universitatea politehnica bucuresti\cursuri inregistrate\an 3 sem 1\proiect 1


 ****     CIRCUIT DESCRIPTION


******************************************************************************




** Creating circuit file "OCP.cir" 
** WARNING: THIS AUTOMATICALLY GENERATED FILE MAY BE OVERWRITTEN BY SUBSEQUENT SIMULATIONS

*Libraries: 
* Profile Libraries :
* Local Libraries :
.LIB "D:/OrCAD/OrCAD_16.6_Lite/tools/pspice/library/MJD31CG.lib" 
.LIB "D:/OrCAD/OrCAD_16.6_Lite/tools/pspice/library/BC817-25.lib" 
.LIB "D:/OrCAD/OrCAD_16.6_Lite/tools/pspice/library/BC807-25.lib" 
.LIB "D:/OrCAD/OrCAD_16.6_Lite/tools/pspice/library/BZX84C10.lib" 
.LIB "D:/OrCAD/OrCAD_16.6_Lite/tools/pspice/library/BZX84C5V1.lib" 
.LIB "D:/OrCAD/OrCAD_16.6_Lite/tools/pspice/library/BZX84C2V7.lib" 
.LIB "D:/OrCAD/OrCAD_16.6_Lite/tools/pspice/library/MMBFJ309LT1G.lib" 
* From [PSPICE NETLIST] section of C:\Users\Tudor\AppData\Roaming\SPB_16.6\cdssetup\OrCAD_PSpice/16.6.0/PSpice.ini file:
.lib "nomd.lib" 

*Analysis directives: 
.TRAN  0 10s 0 0.1s 
.OPTIONS ADVCONV
.PROBE64 V(alias(*)) I(alias(*)) W(alias(*)) D(alias(*)) NOISE(alias(*)) 
.INC "..\SCHEMATIC1.net" 



**** INCLUDING SCHEMATIC1.net ****
* source OCP
J_Q1         VIN N100033 N100495 JMMBFJ309LT1 
D_D5         N100787 N101199 BZX84-C2V7 
D_D1         N100637 N100033 BZX84-C5V1 
R_R12         N101151 N101145  680 TC=0,0 
R_R7         0 N99991  100k TC=0,0 
D_D4         N101199 N101193 BZX84-C5V1 
R_R11         N101145 VOUT  15k TC=0,0 
V_V1         VIN 0 23.5V
R_R8         N100091 N1003030  10 TC=0,0 
R_R6         N99991 N100091  4.7k TC=0,0 
C_C3         0 N102404  4.7u  TC=0,0 
R_R1         N100033 N100495  150 TC=0,0 
Q_Q2         N100673 N100673 N101113 QBC807-25 
C_C2         0 N100033  4.7u  TC=0,0 
R_R14         0 N100535  15k TC=0,0 
C_C1         0 VIN  4.7u  TC=0,0 
Q_Q3         N100013 N100673 N100019 QBC807-25 
D_D3         N101193 VOUT BZX84-C10 
R_R2         0 N101023  500 TC=0,0 
X_R13         N100535 N100571 N101151 POT PARAMS: SET=1 VALUE=5k
Q_Q5         N100013 N100571 N100151 QBC817-25 
C_C4         0 N102404  4.7u  TC=0,0 
Q_Q8         VOUT N100787 0 QMJD31C 
Q_Q7         N100013 N99991 VOUT QBC817-25 
R_RL         N101428 VOUT  470 TC=0,0 
R_R10         N1003250 VOUT  1 TC=0,0 
Q_Q9         VIN N100013 N100091 QMJD31C 
R_R3         N101113 VIN  1k TC=0,0 
R_R4         N100019 VIN  1k TC=0,0 
Q_Q4         N100673 N100033 N100151 QBC817-25 
R_R9         N1003030 N1003250  10 TC=0,0 
R_R5         0 N100787  100 TC=0,0 
D_D2         0 N100637 BZX84-C2V7 
Q_Q6         N100151 N100637 N101023 QBC817-25 
V_V2         N101428 0  
+PWL 0 17V 10 0V 

**** RESUMING OCP.cir ****
.END

ERROR(ORPSIM-15142): Node N102404 is floating
