
**** 12/11/22 22:23:05 ****** PSpice Lite (October 2012) ****** ID# 10813 ****

 ** Profile: "SCHEMATIC1-transient_sim"  [ d:\1faculta\onedrive - universitatea politehnica bucuresti\cursuri inregistrate\an 3 sem 1


 ****     CIRCUIT DESCRIPTION


******************************************************************************




** Creating circuit file "transient_sim.cir" 
** WARNING: THIS AUTOMATICALLY GENERATED FILE MAY BE OVERWRITTEN BY SUBSEQUENT SIMULATIONS

*Libraries: 
* Profile Libraries :
* Local Libraries :
.LIB "D:/OrCAD/OrCAD_16.6_Lite/tools/pspice/library/BZX84C5V6.lib" 
.LIB "D:/OrCAD/OrCAD_16.6_Lite/tools/pspice/library/MMBFJ309LT1G.lib" 
.LIB "D:/OrCAD/OrCAD_16.6_Lite/tools/pspice/library/BZX84C5V1.lib" 
.LIB "D:/OrCAD/OrCAD_16.6_Lite/tools/pspice/library/BZX84C2V7.lib" 
.LIB "D:/OrCAD/OrCAD_16.6_Lite/tools/pspice/library/BC807-25.lib" 
.LIB "D:/OrCAD/OrCAD_16.6_Lite/tools/pspice/library/BZX84C6V8.lib" 
.LIB "D:/OrCAD/OrCAD_16.6_Lite/tools/pspice/library/MJD31CG.lib" 
.LIB "D:/OrCAD/OrCAD_16.6_Lite/tools/pspice/library/BC817-25.lib" 
.LIB "D:/OrCAD/OrCAD_16.6_Lite/tools/pspice/library/BZX84C10.lib" 
* From [PSPICE NETLIST] section of C:\Users\Tudor\AppData\Roaming\SPB_16.6\cdssetup\OrCAD_PSpice/16.6.0/PSpice.ini file:
.lib "nomd.lib" 

*Analysis directives: 
.DC LIN V1 15 25 0.1 
.OPTIONS ADVCONV
.PROBE64 V(alias(*)) I(alias(*)) W(alias(*)) D(alias(*)) NOISE(alias(*)) 
.INC "..\SCHEMATIC1.net" 



**** INCLUDING SCHEMATIC1.net ****
* source POSITIVE_FEEDBACK_REGULATOR
R_R11         N50604 N14454  15k TC=0,0 
R_R14         0 N17372  15k TC=0,0 
R_R2         0 N37090  500 TC=0,0 
Q_Q7         N14684 N24387 N14454 QBC817-25 
Q_Q5         N14684 N17408 N14935 QBC817-25 
Q_Q4         N19278 N37352 N14935 QBC817-25 
Q_Q6         N14935 N37343 N37090 QBC817-25 
X_R13         N17372 N17408 N50651 POT PARAMS: SET=1 VALUE=5k
Q_Q9         N39143 N14684 N14372 QMJD31C 
R_R3         N37435 N39143  1k TC=0,0 
R_R4         N39183 N39143  1k TC=0,0 
Q_Q2         N19278 N19278 N37435 QBC807-25 
Q_Q3         N14684 N19278 N39183 QBC807-25 
R_R7         0 N24387  100k TC=0,0 
R_R6         N24387 N14372  4.7k TC=0,0 
Q_Q8         N14454 N33412 0 QMJD31C 
D_D3         N38365 N14454 BZX84-C10 
R_R5         0 N33412  100 TC=0,0 
D_D5         N33412 N38408 BZX84-C2V7 
D_D4         N38408 N38365 BZX84-C5V1 
D_D2         0 N37343 BZX84-C2V7 
J_Q1         N39143 N37352 N42910 JMMBFJ309LT1 
R_R1         N37352 N42910  150 TC=0,0 
D_D1         N37343 N37352 BZX84-C5V1 
R_R12         N50651 N50604  1k TC=0,0 
R_R8         N14372 N684860  10 TC=0,0 
R_R9         N684860 N685050  10 TC=0,0 
R_R10         N685050 N14454  1 TC=0,0 
C_C1         0 N39143  10u  TC=0,0 
C_C2         0 N14454  10u  TC=0,0 
R_R15         N83625 N39143  10 TC=0,0 
V_V2         N83625 0 23.5V
R_RL         0 N14454  470 TC=0,0 

**** RESUMING transient_sim.cir ****
.END

ERROR(ORPSIM-15090): DC device V1 is undefined
