
**** 12/14/22 21:25:38 ****** PSpice Lite (October 2012) ****** ID# 10813 ****

 ** Profile: "SCHEMATIC1-transient_sim"  [ d:\1faculta\onedrive - universitatea politehnica bucuresti\cursuri inregistrate\an 3 sem 1


 ****     CIRCUIT DESCRIPTION


******************************************************************************




** Creating circuit file "transient_sim.cir" 
** WARNING: THIS AUTOMATICALLY GENERATED FILE MAY BE OVERWRITTEN BY SUBSEQUENT SIMULATIONS

*Libraries: 
* Profile Libraries :
* Local Libraries :
.LIB "D:/OrCAD/OrCAD_16.6_Lite/tools/pspice/library/BZX84C5V6.lib" 
.LIB "D:/OrCAD/OrCAD_16.6_Lite/tools/pspice/library/MMBFJ309LT1G.lib" 
.LIB "D:/OrCAD/OrCAD_16.6_Lite/tools/pspice/library/BZX84C5V1.lib" 
.LIB "D:/OrCAD/OrCAD_16.6_Lite/tools/pspice/library/BZX84C2V7.lib" 
.LIB "D:/OrCAD/OrCAD_16.6_Lite/tools/pspice/library/BC807-25.lib" 
.LIB "D:/OrCAD/OrCAD_16.6_Lite/tools/pspice/library/BZX84C6V8.lib" 
.LIB "D:/OrCAD/OrCAD_16.6_Lite/tools/pspice/library/MJD31CG.lib" 
.LIB "D:/OrCAD/OrCAD_16.6_Lite/tools/pspice/library/BC817-25.lib" 
.LIB "D:/OrCAD/OrCAD_16.6_Lite/tools/pspice/library/BZX84C10.lib" 
* From [PSPICE NETLIST] section of C:\Users\Tudor\AppData\Roaming\SPB_16.6\cdssetup\OrCAD_PSpice/16.6.0/PSpice.ini file:
.lib "nomd.lib" 

*Analysis directives: 
.DC LIN V_V1 15 25 0.1 
.OPTIONS ADVCONV
.PROBE64 V(alias(*)) I(alias(*)) W(alias(*)) D(alias(*)) NOISE(alias(*)) 
.INC "..\SCHEMATIC1.net" 



**** INCLUDING SCHEMATIC1.net ****
* source POSITIVE_FEEDBACK_REGULATOR
R_R11         N50604 VOUT  15k TC=0,0 
R_R14         0 N17372  15k TC=0,0 
R_R2         0 N37090  500 TC=0,0 
Q_Q7         N14684 N24387 VOUT QBC817-25 
Q_Q5         N14684 N17408 N14935 QBC817-25 
Q_Q4         N19278 N37352 N14935 QBC817-25 
Q_Q6         N14935 N37343 N37090 QBC817-25 
X_R13         N17372 N17408 N50651 POT PARAMS: SET=1 VALUE=5k
Q_Q9         VIN N14684 N14372 QMJD31C 
R_R3         N37435 VIN  1k TC=0,0 
R_R4         N39183 VIN  1k TC=0,0 
Q_Q2         N19278 N19278 N37435 QBC807-25 
Q_Q3         N14684 N19278 N39183 QBC807-25 
R_R7         0 N24387  100k TC=0,0 
R_R6         N24387 N14372  4.7k TC=0,0 
Q_Q8         VOUT N33412 0 QMJD31C 
D_D3         N38365 VOUT BZX84-C10 
R_R5         0 N33412  100 TC=0,0 
D_D5         N33412 N38408 BZX84-C2V7 
D_D4         N38408 N38365 BZX84-C5V1 
D_D2         0 N37343 BZX84-C2V7 
J_Q1         VIN N37352 N42910 JMMBFJ309LT1 
R_R1         N37352 N42910  150 TC=0,0 
D_D1         N37343 N37352 BZX84-C5V1 
R_R12         N50651 N50604  680 TC=0,0 
R_R8         N14372 N684860  10 TC=0,0 
R_R9         N684860 N685050  10 TC=0,0 
R_R10         N685050 VOUT  1 TC=0,0 
C_C3         0 VOUT  4.7u  TC=0,0 
R_RL         0 VOUT  470 TC=0,0 
C_C1         0 VIN  4.7u  TC=0,0 
C_C4         0 VOUT  4.7u  TC=0,0 
C_C2         0 N37352  4.7u  TC=0,0 
V_V1         VIN 0 23.5V

**** RESUMING transient_sim.cir ****
.END

**** 12/14/22 21:25:38 ****** PSpice Lite (October 2012) ****** ID# 10813 ****

 ** Profile: "SCHEMATIC1-transient_sim"  [ d:\1faculta\onedrive - universitatea politehnica bucuresti\cursuri inregistrate\an 3 sem 1


 ****     Diode MODEL PARAMETERS


******************************************************************************




               BZX84-C5V1      BZX84-C2V7      BZX84-C10       
          IS    2.666500E-18  110.880000E-18  110.880000E-18 
           N     .82284          .92657          .92657      
         ISR  150.400000E-12    1.515900E-06   49.142000E-12 
         IKF     .01176       147.68          149.75         
          BV    5.176           2.7639         10.124        
         IBV     .10454          .06977          .72438      
          RS     .51617          .85899          .85899      
          TT   43.858000E-09   17.889000E-09  973.820000E-09 
         CJO  232.290000E-12  344.690000E-12   57.292000E-12 
          VJ     .79587          .72935          .67995      
           M     .35004          .31964          .33236      


**** 12/14/22 21:25:38 ****** PSpice Lite (October 2012) ****** ID# 10813 ****

 ** Profile: "SCHEMATIC1-transient_sim"  [ d:\1faculta\onedrive - universitatea politehnica bucuresti\cursuri inregistrate\an 3 sem 1


 ****     BJT MODEL PARAMETERS


******************************************************************************




               QBC807-25       QMJD31C         QBC817-25       
               PNP             NPN             NPN             
       LEVEL    1               1               1            
          IS  108.000000E-15   90.620200E-12   91.980000E-15 
          EG                    1.05                         
          BF  385.7             3.418700E+03  338.8          
          NF     .99            1.17603         1.003        
         VAF   31.29           29.2393        107.9          
         IKF     .3603           .108267         .4913       
         ISE   27.130000E-15  537.193000E-09  446.800000E-18 
          NE    1.4             4               1.65         
          BR   20.57          367.353          29.48         
          NR     .9849          5               1.002        
         VAR   11.62            1.631          25            
         IKR     .054           1.15207          .193        
         ISC  506.200000E-15    1.157540E-09    5.109000E-15 
          NC    1.295           1.49179         1.071        
         ISS    0               0               0            
          RB    1              22.4853          1            
         RBM     .5             1.000000E-12    1            
         IRB    1.000000E-06    2.209370E-03    1.000000E+03 
          RE     .1415        100.000000E-06     .2126       
          RC     .2623           .138633         .143        
         CJE   51.140000E-12  373.889000E-12   38.250000E-12 
         VJE     .8911           .67672          .7004       
         MJE     .4417           .575056         .364        
         CJC   26.560000E-12  352.510000E-12   12.700000E-12 
         VJC     .62             .884306         .4431       
         MJC     .4836           .473486         .3983       
        XCJC     .459            .1              .4555       
         CJS    0               0               0            
         VJS     .75             .75             .75         
         MJS     .333            .5              .333        
          FC     .99             .8              .905        
          TF  735.900000E-12   10.000000E-09  522.900000E-12 
         XTF    1.859           3.4926        219.7          
         VTF    3.813          12.6615          3.502        
         ITF     .4393           .052395        7.257        
          TR   50.000000E-09    3.298030E-06   70.000000E-12 
         XTB                  999.997000E-15                 
         XTI                    1.000000E-12                 
          KF    0               0               0            
          AF    1               1               1            
          CN    2.2             2.42            2.42         
           D     .52             .87             .87         


**** 12/14/22 21:25:38 ****** PSpice Lite (October 2012) ****** ID# 10813 ****

 ** Profile: "SCHEMATIC1-transient_sim"  [ d:\1faculta\onedrive - universitatea politehnica bucuresti\cursuri inregistrate\an 3 sem 1


 ****     Junction FET MODEL PARAMETERS


******************************************************************************




               JMMBFJ309LT1    
               NJF             
         VTO   -1.7          
        BETA    5.560100E-03 
      LAMBDA     .02184      
          IS    1.333600E-12 
          RD     .1          
          RS     .1          
         CGD    5.351520E-12 
         CGS    5.071890E-12 
          PB    2.41896      
          KF    9.999820E-21 
          AF     .200092     



          JOB CONCLUDED

**** 12/14/22 21:25:38 ****** PSpice Lite (October 2012) ****** ID# 10813 ****

 ** Profile: "SCHEMATIC1-transient_sim"  [ d:\1faculta\onedrive - universitatea politehnica bucuresti\cursuri inregistrate\an 3 sem 1


 ****     JOB STATISTICS SUMMARY


******************************************************************************



  Total job time (using Solver 1)   =         .03
